*KEYWORD
*TITLE
$#                                                                         title
Wire Crimp Forming - 19-Strand Copper Conductor - Explicit Quasi-Static
*CONTROL_BULK_VISCOSITY
$#      q1        q2      type     btype    pbtype
       1.2      0.06         1                    
*CONTROL_ACCURACY
$#     osu       inn    pidosu      iacc     exacc
         1         4         0         0       0.0
*CONTROL_CONTACT
$#  slsfac    rwpnal    islchk    shlthk    penopt    thkchg     orien    enmass
       0.0       0.0         1         2         1         0         1         0
$#  usrstr    usrfrc     nsbcs    interm     xpene     ssthk      ecdt   tiedprj
         0         0         0         0       0.0         0         0         0
$#   sfric     dfric       edc       vfc        th      th_sf     pen_sf
       0.0       0.0       0.0       0.0       0.0       0.0       0.0
$#  ignore    frceng   skiprwg    outseg   spotstp   spotdel   spothin
         2         1         0         0         0         0       0.0
*CONTROL_ENERGY
$#    hgen      rwen    slnten     rylen     irgen     maten     drlen     disen
         2         2         2         1         2         1         1         1
*CONTROL_HOURGLASS
$#     ihq        qh
         4      0.03
*CONTROL_TERMINATION
$#  endtim    endcyc     dtmin    endeng    endmas     nosol
  0.122333         0       0.0       0.01.000000E8         0
*CONTROL_TIMESTEP
$#  dtinit    tssfac      isdo    tslimt     dt2ms      lctm     erode     ms1st
       0.0       0.9         0       0.0-3.0000E-7         0         0         0
*DATABASE_BNDOUT
$#      dt    binary      lcur     ioopt   option1   option2   option3   option4
     0.002         0         0         1         0         0         0         0
*DATABASE_GLSTAT
$#      dt    binary      lcur     ioopt
     0.001         0         0         1
*DATABASE_MATSUM
$#      dt    binary      lcur     ioopt
     0.001         0         0         1
*DATABASE_RBDOUT
$#      dt    binary      lcur     ioopt
     0.002         0         0         1
*DATABASE_NCFORC
$#      dt    binary      lcur     ioopt
     0.002         0         0         1
*DATABASE_RCFORC
$#      dt    binary      lcur     ioopt
     0.002         0         0         1
*DATABASE_SLEOUT
$#      dt    binary      lcur     ioopt
     0.002         0         0         1
*DATABASE_SPCFORC
$#      dt    binary      lcur     ioopt
     0.002         0         0         1
*DATABASE_BINARY_D3PLOT
$#      dt      lcdt      beam     npltc    psetid
     0.002         0         0         0         0
$#   ioopt      rate    cutoff    window      type      pset
         0       0.0       0.0       0.0         0         0
*DATABASE_EXTENT_BINARY
$#   neiph     neips    maxint    strflg    sigflg    epsflg    rltflg    engflg
         6         0         3         0         1         1         1         1
$#  cmpflg    ieverp    beamip     dcomp      shge     stssz    n3thdt   ialemat
         0         0         0         1         1         1         2         1
$# nintsld   pkp_sen      sclp     hydro     msscl     therm    intout    nodout
         0         0       1.0         0         0         0                    
$#    dtdt    resplt     neipb   quadsld    cubsld   deleres
         0         0         0         0         0         0
*BOUNDARY_PRESCRIBED_MOTION_RIGID_ID
$#      id                                                               heading
         6PUNCH_STROKE_Y
$#     pid       dof       vad      lcid        sf       vid     death     birth
        21         2         2         4       1.0         01.00000E28       0.0
*BOUNDARY_SPC_SET_ID
$#      id                                                               heading
         1STRAND_ENDS_FIXED
$#    nsid       cid      dofx      dofy      dofz     dofrx     dofry     dofrz
        15         0         1         1         1         0         0         0
*SET_NODE_LIST_TITLE
STRAND_END_NODES
$#     sid       da1       da2       da3       da4    solver       its         -
        15       0.0       0.0       0.0       0.0MECH               1          
$#    nid1      nid2      nid3      nid4      nid5      nid6      nid7      nid8
        21        22        23        24       317       318       319       320
       321       322       323       324       325       326       327       328
       329       330       331       332       333       334       335       336
      1482      1483      1484      1485      1486      1487      1488      1489
      1490      1491      1492      1493      1494      1495      1496      1497
      1498      1499      1500      1501      1502      1503      1504      1505
      1506      1507      1508      1509      1510      1511      1512      1513
      1514      1515      1516      1517      1518      1519      1520      1521
      1522      1523      1524      1525      1526      1527      1528      1529
      1530      3974      3975      3976      3977      3978      3979      4358
      4359      4360      4361      4362      4363      4364      4365      4366
      4367      4368      4369      4370      4371      4372      4373      4374
      4375      5431      5432      5433      5434      5435      5436      5437
      5438      5439      5440      5441      5442      5443      5444      5445
      5446      5447      5448      5449      5450      5451      5452      5453
      5454      5455      5456      5457      5458      5459      5460      5461
      5462      5463      5464      5465      5466      5467      5468      5469
      5470      5471      5472      5473      5474      5475      5476      5477
      5478      5479      7906      7907      7908      7909      8202      8203
      8204      8205      8206      8207      8208      8209      8210      8211
$ ... 159 like lines cut
*CONTACT_AUTOMATIC_SURFACE_TO_SURFACE_MPP_ID
$#     cid                                                                 title
         1FERRULE_TO_ANVIL
$#  ignore      bckt    lcbckt    ns2trk   inititr    parmax    unused    cparm8
         2        20         0        13         2    1.0005                   0
$#   surfa     surfb  surfatyp  surfbtyp   saboxid   sbboxid      sapr      sbpr
        13        25         0         0         0         0         1         1
$#      fs        fd        dc        vc       vdc    penchk        bt        dt
       0.3       0.0       0.0     300.0       0.0         0       0.01.00000E20
$#    sfsa      sfsb      sast      sbst     sfsat     sfsbt       fsf       vsf
       1.0       1.0       0.0      0.05       0.0       0.0       1.0       1.0
$#    soft    sofscl    lcidab    maxpar     sbopt     depth     bsort    frcfrq
         1       0.1         0     1.025         3         5        20         1
$#  penmax    thkopt    shlthk     snlog      isym     i2d3d    sldthk    sldstf
       0.0         0         2         0         0         0       0.0       0.0
*SET_SEGMENT_TITLE
FERRULE_EXT_SURFACE
$#     sid       da1       da2       da3       da4    solver       its         -
        13       0.0       0.0       0.0       0.0MECH               0          
$#      n1        n2        n3        n4        a1        a2        a3        a4
     65537     65538     62592     62591       0.0       0.0       0.0       0.0
     65538     65539     62593     62592       0.0       0.0       0.0       0.0
     65539     65540     62594     62593       0.0       0.0       0.0       0.0
     65540     62171     61322     62594       0.0       0.0       0.0       0.0
     65541     65542     65538     65537       0.0       0.0       0.0       0.0
     65542     65543     65539     65538       0.0       0.0       0.0       0.0
     65543     65544     65540     65539       0.0       0.0       0.0       0.0
     65544     62172     62171     65540       0.0       0.0       0.0       0.0
     65545     65546     65542     65541       0.0       0.0       0.0       0.0
     65546     65547     65543     65542       0.0       0.0       0.0       0.0
     65547     65548     65544     65543       0.0       0.0       0.0       0.0
     65548     62173     62172     65544       0.0       0.0       0.0       0.0
     65549     65550     65546     65545       0.0       0.0       0.0       0.0
     65550     65551     65547     65546       0.0       0.0       0.0       0.0
     65551     65552     65548     65547       0.0       0.0       0.0       0.0
     65552     62174     62173     65548       0.0       0.0       0.0       0.0
     65553     65554     65550     65549       0.0       0.0       0.0       0.0
     65554     65555     65551     65550       0.0       0.0       0.0       0.0
     65555     65556     65552     65551       0.0       0.0       0.0       0.0
     65556     62175     62174     65552       0.0       0.0       0.0       0.0
$ ... 3168 like lines cut
*CONTACT_AUTOMATIC_SURFACE_TO_SURFACE_MPP_ID
$#     cid                                                                 title
         2FERRULE_TO_PUNCH
$#  ignore      bckt    lcbckt    ns2trk   inititr    parmax    unused    cparm8
         2        20         0        13         2    1.0005                   0
$#   surfa     surfb  surfatyp  surfbtyp   saboxid   sbboxid      sapr      sbpr
        13        17         0         2         0         0         1         1
$#      fs        fd        dc        vc       vdc    penchk        bt        dt
      0.15       0.0       0.0     300.0       0.0         0       0.01.00000E20
$#    sfsa      sfsb      sast      sbst     sfsat     sfsbt       fsf       vsf
       0.5       1.0       0.0      0.05       1.0       1.0       1.0       1.0
$#    soft    sofscl    lcidab    maxpar     sbopt     depth     bsort    frcfrq
         1       0.1         0     1.025         3         5        20         1
*SET_PART_LIST_TITLE
PUNCH_PART_SET
$#     sid       da1       da2       da3       da4    solver
        17       0.0       0.0       0.0       0.0MECH
$#    pid1      pid2      pid3      pid4      pid5      pid6      pid7      pid8
        21         0         0         0         0         0         0         0
*CONTACT_AUTOMATIC_GENERAL_ID
$#     cid                                                                 title
         3STRAND_SELF_CONTACT
$#   surfa     surfb  surfatyp  surfbtyp   saboxid   sbboxid      sapr      sbpr
        20         0         2         0         0         0         0         0
$#      fs        fd        dc        vc       vdc    penchk        bt        dt
      0.15       0.0       0.0       0.0       0.0         0       0.01.00000E20
$#    sfsa      sfsb      sast      sbst     sfsat     sfsbt       fsf       vsf
       0.0       1.0       0.0       0.0       1.0       1.0       1.0       1.0
*SET_PART_LIST_TITLE
STRAND_PART_SET
$#     sid       da1       da2       da3       da4    solver
        20       0.0       0.0       0.0       0.0MECH
$#    pid1      pid2      pid3      pid4      pid5      pid6      pid7      pid8
         1         2         3         4         5         6         7         8
         9        10        11        12        13        14        15        17
        18        19        20         0         0         0         0         0
*CONTACT_AUTOMATIC_GENERAL_ID
$#     cid                                                                 title
         4FERRULE_SELF_CONTACT
$#   surfa     surfb  surfatyp  surfbtyp   saboxid   sbboxid      sapr      sbpr
        18         0         2         0         0         0         0         0
$#      fs        fd        dc        vc       vdc    penchk        bt        dt
       0.3       0.0       0.0     300.0       0.0         0       0.01.00000E20
$#    sfsa      sfsb      sast      sbst     sfsat     sfsbt       fsf       vsf
       0.0       1.0       0.0       0.0       1.0       1.0       1.0       1.0
*SET_PART_LIST_TITLE
FERRULE_PART_SET
$#     sid       da1       da2       da3       da4    solver
        18       0.0       0.0       0.0       0.0MECH
$#    pid1      pid2      pid3      pid4      pid5      pid6      pid7      pid8
        16         0         0         0         0         0         0         0
*CONTACT_AUTOMATIC_SURFACE_TO_SURFACE_MPP_ID
$#     cid                                                                 title
         5STRAND_TO_FERRULE
$#  ignore      bckt    lcbckt    ns2trk   inititr    parmax    unused    cparm8
         1       200         0         3         2    1.0005                   0
$#   surfa     surfb  surfatyp  surfbtyp   saboxid   sbboxid      sapr      sbpr
        12        13         0         0         0         0         0         0
$#      fs        fd        dc        vc       vdc    penchk        bt        dt
      0.15       0.0       0.0       0.0       0.0         0       0.01.00000E20
$#    sfsa      sfsb      sast      sbst     sfsat     sfsbt       fsf       vsf
       1.0       1.0       0.0       0.0       1.0       1.0       1.0       1.0
$#    soft    sofscl    lcidab    maxpar     sbopt     depth     bsort    frcfrq
         1       0.1         0     1.025         2         5        20         1
*SET_SEGMENT_TITLE
STRAND_EXT_SURFACE
$#     sid       da1       da2       da3       da4    solver       its         -
        12       0.0       0.0       0.0       0.0MECH               0          
$#      n1        n2        n3        n4        a1        a2        a3        a4
     67842     69313     69312     68235       0.0       0.0       0.0       0.0
     68205     69376     68233     67841       0.0       0.0       0.0       0.0
     68206     69349     68230     67840       0.0       0.0       0.0       0.0
     68207     69346     69349     68206       0.0       0.0       0.0       0.0
     68209     69358     68227     67839       0.0       0.0       0.0       0.0
     68210     69355     69358     68209       0.0       0.0       0.0       0.0
     68212     69367     68224     67838       0.0       0.0       0.0       0.0
     68213     69364     69367     68212       0.0       0.0       0.0       0.0
     68217     69394     68236     67842       0.0       0.0       0.0       0.0
     68218     69385     68221     67837       0.0       0.0       0.0       0.0
     68219     69382     69385     68218       0.0       0.0       0.0       0.0
     68235     69312     69298     68234       0.0       0.0       0.0       0.0
     68236     69314     69313     67842       0.0       0.0       0.0       0.0
     68237     69311     69314     68236       0.0       0.0       0.0       0.0
     69307     67841     68233     69308       0.0       0.0       0.0       0.0
     69307     69308     69310     69309       0.0       0.0       0.0       0.0
     69307     69309     68232     67841       0.0       0.0       0.0       0.0
     69308     68233     68234     69298       0.0       0.0       0.0       0.0
     69308     69298     69297     69310       0.0       0.0       0.0       0.0
     69309     69295     68231     68232       0.0       0.0       0.0       0.0
$ ... 25423 like lines cut
*MAT_PIECEWISE_LINEAR_PLASTICITY_TITLE
COPPER_STRAND
$#     mid        ro         e        pr      sigy      etan      fail      tdel
         18.50000E-9  117000.0      0.35     241.5       0.01.00000E21       0.0
$#       c         p      lcss      lcsr        vp
       0.0       0.0         3         0       0.0
$#    eps1      eps2      eps3      eps4      eps5      eps6      eps7      eps8
       0.0       0.0       0.0       0.0       0.0       0.0       0.0       0.0
$#     es1       es2       es3       es4       es5       es6       es7       es8
       0.0       0.0       0.0       0.0       0.0       0.0       0.0       0.0
*MAT_PIECEWISE_LINEAR_PLASTICITY_TITLE
FERRULE_ALLOY
$#     mid        ro         e        pr      sigy      etan      fail      tdel
         88.50000E-9  112000.0      0.34     391.0       0.01.00000E21       0.0
$#       c         p      lcss      lcsr        vp
       0.0       0.0         2         0       0.0
$#    eps1      eps2      eps3      eps4      eps5      eps6      eps7      eps8
       0.0       0.0       0.0       0.0       0.0       0.0       0.0       0.0
$#     es1       es2       es3       es4       es5       es6       es7       es8
       0.0       0.0       0.0       0.0       0.0       0.0       0.0       0.0
*MAT_RIGID_TITLE
ANVIL_RIGID
$#     mid        ro         e        pr         n    couple         m     alias
         97.85000E-8  210000.0       0.3       0.0       0.0       0.0          
$#     cmo      con1      con2    spcnid      xspc      yspc      zspc
       1.0         7         7         0       0.0       0.0       0.0
$#lco or a1        a2        a3        v1        v2        v3    bndlco
       0.0       0.0       0.0       0.0       0.0       0.0       0.0
*MAT_RIGID_TITLE
PUNCH_RIGID
$#     mid        ro         e        pr         n    couple         m     alias
        107.85000E-8  210000.0       0.3       0.0       0.0       0.0          
$#     cmo      con1      con2    spcnid      xspc      yspc      zspc
       1.0         6         7         0       0.0       0.0       0.0
$#lco or a1        a2        a3        v1        v2        v3    bndlco
       0.0       0.0       0.0       0.0       0.0       0.0       0.0
*NODE
$#   nid               x               y               z      tc      rc
       2       0.4617793        17.21798            3.72       0       0
       3       0.4094834         17.0228            3.72       0       0
       4       0.5332168        16.95137            3.72       0       0
       5       0.6760917        17.09424            1.86       0       0
       6       0.4617793        17.21798            1.86       0       0
       7       0.4094834         17.0228            1.86       0       0
       8       0.5332168        16.95137            1.86       0       0
       9       0.6760917        17.09424            0.93       0       0
      10       0.4617793        17.21798            0.93       0       0
      11       0.4094834         17.0228            0.93       0       0
      12       0.5332168        16.95137            0.93       0       0
      13       0.5332168        16.95137    7.152557e-09       0       0
      14       0.4094834         17.0228    7.152557e-09       0       0
      15       0.4617793        17.21798    7.152557e-09       0       0
      16       0.6760917        17.09424    7.152557e-09       0       0
      17       0.4094834         17.0228            5.58       0       0
      18       0.5332168        16.95137            5.58       0       0
      19       0.6760917        17.09424            5.58       0       0
      20       0.4617793        17.21798            5.58       0       0
      21       0.4617793        17.21798            7.44       0       0
$ ... 84860 like lines cut
*DEFINE_CURVE_TITLE
FERRULE_FLOW_CURVE
$#    lcid      sidr       sfa       sfo      offa      offo    dattyp     lcint
         2         0       1.0       1.0       0.0       0.0         0     20000
$#                a1                  o1
                 0.0               391.0
    7.5000000652e-04               418.0
             0.00164               431.5
              0.0026               437.0
               0.017               440.0
                20.0              4270.0
*DEFINE_CURVE_TITLE
COPPER_FLOW_CURVE
$#    lcid      sidr       sfa       sfo      offa      offo    dattyp     lcint
         3         0       1.0       1.0       0.0       0.0         0     20000
$#                a1                  o1
                 0.0               241.5
    7.5000000652e-04               268.2
             0.00164               282.0
              0.0026               287.5
               0.017               290.3
                20.0              4100.0
*DEFINE_CURVE_TITLE
PUNCH_STROKE
$#    lcid      sidr       sfa       sfo      offa      offo    dattyp     lcint
         4         0       1.0       1.0       0.0       0.0         0      2000
$#                a1                  o1
                   0                   0
             7.2e-05    -5.725495296e-07
            0.000144    -4.552880947e-06
            0.000216    -1.527340769e-05
            0.000288    -3.598492631e-05
             0.00036       -6.985728e-05
            0.000432    -0.0001199800222
            0.000504      -0.00018936308
            0.000576    -0.0002809374179
            0.000648    -0.0003975557014
             0.00072      -0.00054199296
            0.000792    -0.0007169472516
            0.000864    -0.0009250403254
            0.000936     -0.001168818286
            0.001008     -0.001450752256
             0.00108      -0.00177323904
            0.001152      -0.00213860179
            0.001224     -0.002549090665
            0.001296     -0.003006883499
            0.001368     -0.003514086461
$ ... 981 like lines cut
*PART
$#                                                                         title
WIRE_STRAND_01
$#     pid     secid       mid     eosid      hgid      grav    adpopt      tmid
         1         1         1         0         0         0         0         0
*SECTION_SOLID_TITLE
WIRE_STRAND_01_SECTION
$#   secid    elform       aet    unused    unused    unused    cohoff   gaskett
         1         1         0                                     0.0       0.0
*PART
$#                                                                         title
WIRE_STRAND_02
$#     pid     secid       mid     eosid      hgid      grav    adpopt      tmid
         2         2         1         0         0         0         0         0
*SECTION_SOLID_TITLE
WIRE_STRAND_02_SECTION
$#   secid    elform       aet    unused    unused    unused    cohoff   gaskett
         2         1         0                                     0.0       0.0
*PART
$#                                                                         title
WIRE_STRAND_03
$#     pid     secid       mid     eosid      hgid      grav    adpopt      tmid
         3         3         1         0         0         0         0         0
*SECTION_SOLID_TITLE
WIRE_STRAND_03_SECTION
$#   secid    elform       aet    unused    unused    unused    cohoff   gaskett
         3         1         0                                     0.0       0.0
*PART
$#                                                                         title
WIRE_STRAND_04
$#     pid     secid       mid     eosid      hgid      grav    adpopt      tmid
         4         4         1         0         0         0         0         0
*SECTION_SOLID_TITLE
WIRE_STRAND_04_SECTION
$#   secid    elform       aet    unused    unused    unused    cohoff   gaskett
         4         1         0                                     0.0       0.0
*PART
$#                                                                         title
WIRE_STRAND_05
$#     pid     secid       mid     eosid      hgid      grav    adpopt      tmid
         5         5         1         0         0         0         0         0
*SECTION_SOLID_TITLE
WIRE_STRAND_05_SECTION
$#   secid    elform       aet    unused    unused    unused    cohoff   gaskett
         5         1         0                                     0.0       0.0
*PART
$#                                                                         title
WIRE_STRAND_06
$#     pid     secid       mid     eosid      hgid      grav    adpopt      tmid
         6         6         1         0         0         0         0         0
*SECTION_SOLID_TITLE
WIRE_STRAND_06_SECTION
$#   secid    elform       aet    unused    unused    unused    cohoff   gaskett
         6         1         0                                     0.0       0.0
*PART
$#                                                                         title
WIRE_STRAND_07
$#     pid     secid       mid     eosid      hgid      grav    adpopt      tmid
         7         7         1         0         0         0         0         0
*SECTION_SOLID_TITLE
WIRE_STRAND_07_SECTION
$#   secid    elform       aet    unused    unused    unused    cohoff   gaskett
         7         1         0                                     0.0       0.0
*PART
$#                                                                         title
WIRE_STRAND_08
$#     pid     secid       mid     eosid      hgid      grav    adpopt      tmid
         8         8         1         0         0         0         0         0
*SECTION_SOLID_TITLE
WIRE_STRAND_08_SECTION
$#   secid    elform       aet    unused    unused    unused    cohoff   gaskett
         8         1         0                                     0.0       0.0
*PART
$#                                                                         title
WIRE_STRAND_09
$#     pid     secid       mid     eosid      hgid      grav    adpopt      tmid
         9         9         1         0         0         0         0         0
*SECTION_SOLID_TITLE
WIRE_STRAND_09_SECTION
$#   secid    elform       aet    unused    unused    unused    cohoff   gaskett
         9         1         0                                     0.0       0.0
*PART
$#                                                                         title
WIRE_STRAND_10
$#     pid     secid       mid     eosid      hgid      grav    adpopt      tmid
        10        10         1         0         0         0         0         0
*SECTION_SOLID_TITLE
WIRE_STRAND_10_SECTION
$#   secid    elform       aet    unused    unused    unused    cohoff   gaskett
        10         1         0                                     0.0       0.0
*PART
$#                                                                         title
WIRE_STRAND_11
$#     pid     secid       mid     eosid      hgid      grav    adpopt      tmid
        11        11         1         0         0         0         0         0
*SECTION_SOLID_TITLE
WIRE_STRAND_11_SECTION
$#   secid    elform       aet    unused    unused    unused    cohoff   gaskett
        11         1         0                                     0.0       0.0
*PART
$#                                                                         title
WIRE_STRAND_12
$#     pid     secid       mid     eosid      hgid      grav    adpopt      tmid
        12        12         1         0         0         0         0         0
*SECTION_SOLID_TITLE
WIRE_STRAND_12_SECTION
$#   secid    elform       aet    unused    unused    unused    cohoff   gaskett
        12         1         0                                     0.0       0.0
*PART
$#                                                                         title
WIRE_STRAND_13
$#     pid     secid       mid     eosid      hgid      grav    adpopt      tmid
        13        13         1         0         0         0         0         0
*SECTION_SOLID_TITLE
WIRE_STRAND_13_SECTION
$#   secid    elform       aet    unused    unused    unused    cohoff   gaskett
        13         1         0                                     0.0       0.0
*PART
$#                                                                         title
WIRE_STRAND_14
$#     pid     secid       mid     eosid      hgid      grav    adpopt      tmid
        14        14         1         0         0         0         0         0
*SECTION_SOLID_TITLE
WIRE_STRAND_14_SECTION
$#   secid    elform       aet    unused    unused    unused    cohoff   gaskett
        14         1         0                                     0.0       0.0
*PART
$#                                                                         title
WIRE_STRAND_15
$#     pid     secid       mid     eosid      hgid      grav    adpopt      tmid
        15        15         1         0         0         0         0         0
*SECTION_SOLID_TITLE
WIRE_STRAND_15_SECTION
$#   secid    elform       aet    unused    unused    unused    cohoff   gaskett
        15         1         0                                     0.0       0.0
*PART
$#                                                                         title
FERRULE
$#     pid     secid       mid     eosid      hgid      grav    adpopt      tmid
        16        16         8         0         0         0         0         0
*SECTION_SOLID_TITLE
FERRULE_SECTION
$#   secid    elform       aet    unused    unused    unused    cohoff   gaskett
        16         1         0                                     0.0       0.0
*PART
$#                                                                         title
WIRE_STRAND_16
$#     pid     secid       mid     eosid      hgid      grav    adpopt      tmid
        17        17         1         0         0         0         0         0
*SECTION_SOLID_TITLE
WIRE_STRAND_16_SECTION
$#   secid    elform       aet    unused    unused    unused    cohoff   gaskett
        17         1         0                                     0.0       0.0
*PART
$#                                                                         title
WIRE_STRAND_17
$#     pid     secid       mid     eosid      hgid      grav    adpopt      tmid
        18        18         1         0         0         0         0         0
*SECTION_SOLID_TITLE
WIRE_STRAND_17_SECTION
$#   secid    elform       aet    unused    unused    unused    cohoff   gaskett
        18         1         0                                     0.0       0.0
*PART
$#                                                                         title
WIRE_STRAND_18
$#     pid     secid       mid     eosid      hgid      grav    adpopt      tmid
        19        19         1         0         0         0         0         0
*SECTION_SOLID_TITLE
WIRE_STRAND_18_SECTION
$#   secid    elform       aet    unused    unused    unused    cohoff   gaskett
        19         1         0                                     0.0       0.0
*PART
$#                                                                         title
WIRE_STRAND_19
$#     pid     secid       mid     eosid      hgid      grav    adpopt      tmid
        20        20         1         0         0         0         0         0
*SECTION_SOLID_TITLE
WIRE_STRAND_19_SECTION
$#   secid    elform       aet    unused    unused    unused    cohoff   gaskett
        20         1         0                                     0.0       0.0
*PART
$#                                                                         title
PUNCH
$#     pid     secid       mid     eosid      hgid      grav    adpopt      tmid
        21        21        10         0         0         0         0         0
*SECTION_SHELL_TITLE
PUNCH_SECTION
$#   secid    elform      shrf       nip     propt   qr/irid     icomp     setyp
        21         2       1.0         5       1.0         0         0         1
$#      t1        t2        t3        t4      nloc     marea      idof    edgset
       0.1       0.1       0.1       0.1       0.0       0.0       0.0         0
*PART
$#                                                                         title
ANVIL
$#     pid     secid       mid     eosid      hgid      grav    adpopt      tmid
        22        22         9         0         0         0         0         0
*SECTION_SHELL_TITLE
ANVIL_SECTION
$#   secid    elform      shrf       nip     propt   qr/irid     icomp     setyp
        22         2       1.0         5       1.0         0         0         1
$#      t1        t2        t3        t4      nloc     marea      idof    edgset
       0.1       0.1       0.1       0.1       0.0       0.0       0.0         0
*ELEMENT_SOLID (ten nodes format)
$#   eid     pid
       1       1
$#    n1      n2      n3      n4      n5      n6      n7      n8      n9     n10
     337     339     356     338    1591    1593    1610    1592       0       0
       2       1
     339     340     357     356    1593    1594    1611    1610       0       0
       3       1
     340     341     351     357    1594    1595    1605    1611       0       0
       4       1
     338     356     358     344    1592    1610    1612    1598       0       0
       5       1
     356     357     359     358    1610    1611    1613    1612       0       0
       6       1
     357     351     352     359    1611    1605    1606    1613       0       0
       7       1
     344     358     360     343    1598    1612    1614    1597       0       0
       8       1
     358     359     361     360    1612    1613    1615    1614       0       0
       9       1
     359     352     353     361    1613    1606    1607    1615       0       0
      10       1
     343     360     355     342    1597    1614    1609    1596       0       0
      11       1
$ ... 134729 like lines cut
*ELEMENT_SHELL
$#   eid     pid      n1      n2      n3      n4      n5      n6      n7      n8
   46323      22   57134   57137   57136   57135       0       0       0       0
   46324      22   57135   57136   57139   57138       0       0       0       0
   46325      22   57138   57139   57141   57140       0       0       0       0
   46326      22   57140   57141   57217   57152       0       0       0       0
   46327      22   57152   57217   57216   57153       0       0       0       0
   46328      22   57153   57216   57215   57154       0       0       0       0
   46329      22   57154   57215   57214   57155       0       0       0       0
   46330      22   57155   57214   57213   57156       0       0       0       0
   46331      22   57156   57213   57212   57157       0       0       0       0
   46332      22   57157   57212   57211   57158       0       0       0       0
   46333      22   57158   57211   57210   57159       0       0       0       0
   46334      22   57159   57210   57209   57160       0       0       0       0
   46335      22   57160   57209   57208   57161       0       0       0       0
   46336      22   57161   57208   57207   57162       0       0       0       0
   46337      22   57162   57207   57206   57163       0       0       0       0
   46338      22   57163   57206   57205   57164       0       0       0       0
   46339      22   57164   57205   57204   57165       0       0       0       0
   46340      22   57165   57204   57203   57166       0       0       0       0
   46341      22   57166   57203   57202   57167       0       0       0       0
   46342      22   57167   57202   57201   57168       0       0       0       0
$ ... 914 like lines cut
*SET_SEGMENT_TITLE
ANVIL_TOP_SURFACE
$#     sid       da1       da2       da3       da4    solver       its         -
        25       0.0       0.0       0.0       0.0MECH               0          
$#      n1        n2        n3        n4        a1        a2        a3        a4
     57138     57139     57141     57140       0.0       0.0       0.0       0.0
     57140     57141     57217     57152       0.0       0.0       0.0       0.0
     57152     57217     57216     57153       0.0       0.0       0.0       0.0
     57153     57216     57215     57154       0.0       0.0       0.0       0.0
     57154     57215     57214     57155       0.0       0.0       0.0       0.0
     57155     57214     57213     57156       0.0       0.0       0.0       0.0
     57156     57213     57212     57157       0.0       0.0       0.0       0.0
     57157     57212     57211     57158       0.0       0.0       0.0       0.0
     57158     57211     57210     57159       0.0       0.0       0.0       0.0
     57159     57210     57209     57160       0.0       0.0       0.0       0.0
     57160     57209     57208     57161       0.0       0.0       0.0       0.0
     57161     57208     57207     57162       0.0       0.0       0.0       0.0
     57162     57207     57206     57163       0.0       0.0       0.0       0.0
     57163     57206     57205     57164       0.0       0.0       0.0       0.0
     57164     57205     57204     57165       0.0       0.0       0.0       0.0
     57165     57204     57203     57166       0.0       0.0       0.0       0.0
     57166     57203     57202     57167       0.0       0.0       0.0       0.0
     57167     57202     57201     57168       0.0       0.0       0.0       0.0
     57168     57201     57200     57169       0.0       0.0       0.0       0.0
     57169     57200     57199     57170       0.0       0.0       0.0       0.0
$ ... 50 like lines cut
*END
